69
angstrom
Cr       0.000000000      0.000000000      0.000000000
C       -1.101538000      1.118807000     -1.191509000
C        0.210792000     -1.794205000     -0.801873000
C        1.750477000      0.878426000      0.244871000
C       -1.690146000      2.347754000     -0.806952000
C        1.040010000     -2.054335000     -1.920561000
C       -0.889700000     -0.178247000      1.758453000
C        1.088468000     -3.356621000     -2.432460000
C       -2.531733000      2.647645000     -3.097646000
C       -2.267456000     -0.470880000      1.908468000
C       -1.258501000      0.673675000     -2.515058000
C       -0.511141000     -2.857522000     -0.234036000
C       -2.390778000      3.083981000     -1.772358000
C        1.847046000      2.237463000     -0.106638000
C        0.363847000     -4.418418000     -1.872264000
C       -0.109938000      0.003851000      2.912655000
C       -2.803122000     -0.566695000      3.200585000
C        2.869932000      0.246064000      0.838242000
C       -0.662228000     -0.097476000      4.189460000
C       -1.600214000      2.868855000      0.602564000
C       -2.023772000     -0.377804000      4.350893000
C       -0.438902000     -4.149479000     -0.758121000
C       -3.176499000     -0.646495000      0.721303000
C        4.105318000      2.370902000      0.773323000
C        2.999586000      2.972931000      0.162867000
C        4.016264000      1.009976000      1.097276000
C        0.463026000     -5.802551000     -2.442457000
C        1.901354000     -0.985955000     -2.537758000
C        2.866701000     -1.220405000      1.172421000
C        5.349971000      3.161740000      1.046537000
C       -2.632826000     -0.440443000      5.721253000
H       -0.827441000     -0.277068000     -2.821179000
H       -1.136361000     -2.682621000      0.640218000
H       -2.827214000      4.043368000     -1.479235000
H        1.012237000      2.733824000     -0.600945000
H        0.952633000      0.227356000      2.824825000
H       -3.866291000     -0.799266000      3.313219000
H       -0.021132000      0.023260000      5.065022000
H       -2.268059000      2.303311000      1.267474000
H       -1.886343000      3.926674000      0.661088000
H       -0.591297000      2.757874000      1.021673000
H       -1.017737000     -4.952085000     -0.295130000
H       -3.519062000      0.328501000      0.342760000
H       -4.065926000     -1.237352000      0.978619000
H       -2.672364000     -1.140345000     -0.118999000
H        3.039907000      4.031458000     -0.098054000
H        4.875745000      0.525090000      1.566504000
H       -0.418284000     -6.397173000     -2.180365000
H        1.343378000     -6.337911000     -2.053548000
H        1.397176000     -0.013355000     -2.601103000
H        2.802408000     -0.819447000     -1.930596000
H        2.064174000     -1.483565000      1.876849000
H        3.817583000     -1.531861000      1.621724000
H        2.702459000     -1.834094000      0.277358000
H        5.883688000      3.394255000      0.112668000
H        6.041704000      2.615498000      1.698565000
H        5.109001000      4.114590000      1.534288000
H       -2.860480000      0.572920000      6.088861000
H       -1.941166000     -0.897426000      6.442209000
H       -3.568526000     -1.014580000      5.722506000
H        1.708460000     -3.551361000     -3.309566000
C       -3.271384000      3.460602000     -4.116230000
C       -1.957062000      1.424241000     -3.458161000
H        0.546352000     -5.784909000     -3.536796000
H        2.234497000     -1.262048000     -3.546693000
H       -4.288077000      3.066296000     -4.256833000
H       -3.359591000      4.509861000     -3.812561000
H       -2.766510000      3.419159000     -5.090749000
H       -2.038256000      1.065234000     -4.486061000

