69
angstrom
Cr       0.000000000      0.000000000      0.000000000
C       -2.705519000     -0.434689000     -0.979062000
C        2.705519000      0.434690000     -0.979062000
C       -2.104223000     -2.410950000     -2.877194000
C        2.104223000      2.410951000     -2.877194000
C       -0.859481000      1.351378000      1.166477000
C        0.859481000     -1.351378000      1.166477000
C       -3.421753000     -1.974486000     -2.688826000
C        3.421753000      1.974487000     -2.688826000
C       -0.559014000      2.713926000      0.985864000
C        0.559014000     -2.713925000      0.985864000
C       -1.062452000     -1.835232000     -2.113078000
C        1.062451000      1.835233000     -2.113078000
C       -1.371486000     -0.851753000     -1.148498000
C        1.371487000      0.851754000     -1.148498000
C       -1.754354000      0.954966000      2.183753000
C        1.754353000     -0.954965000      2.183753000
C       -1.810824000     -3.476472000     -3.898184000
C        1.810824000      3.476473000     -3.898184000
C       -2.024628000     -0.495466000      2.476475000
C        2.024628000      0.495467000      2.476475000
C       -3.725498000     -0.989499000     -1.751216000
C        3.725498000      0.989499000     -1.751216000
C       -1.154112000      3.678058000      1.801568000
C        1.154113000     -3.678058000      1.801568000
C        0.351454000     -2.280997000     -2.369014000
C       -0.351454000      2.280998000     -2.369014000
H       -2.949033000      0.337409000     -0.250068000
H        2.949033000     -0.337409000     -0.250068000
H       -4.215610000     -2.401876000     -3.301979000
H        4.215610000      2.401877000     -3.301979000
H        0.147865000      3.025154000      0.215352000
H       -0.147865000     -3.025154000      0.215352000
H       -1.393678000     -4.381131000     -3.428384000
H        1.393678000      4.381131000     -3.428384000
H       -1.070331000     -3.144355000     -4.640623000
H        1.070330000      3.144355000     -4.640623000
H       -2.726935000     -3.756708000     -4.433361000
H        2.726934000      3.756708000     -4.433361000
H       -1.766842000     -1.155257000      1.640778000
H        1.766842000      1.155258000      1.640778000
H       -4.755255000     -0.650897000     -1.629331000
H        4.755255000      0.650897000     -1.629331000
H       -0.936267000      4.735735000      1.661709000
H        0.936267000     -4.735735000      1.661709000
H        0.470463000     -3.364020000     -2.208056000
H       -0.470463000      3.364020000     -2.208056000
H        1.080899000     -1.766091000     -1.734734000
H       -1.080900000      1.766092000     -1.734734000
H        0.639666000     -2.097400000     -3.415866000
H       -0.639667000      2.097401000     -3.415866000
C       -2.370400000      1.936577000      2.994399000
C        2.370399000     -1.936577000      2.994399000
H       -3.072590000     -0.677892000      2.741764000
H       -1.429293000     -0.816654000      3.345601000
H        3.072590000      0.677893000      2.741764000
H        1.429293000      0.816654000      3.345601000
C       -2.043193000      3.284432000      2.798817000
C        2.043194000     -3.284432000      2.798817000
C       -3.357637000      1.553881000      4.059477000
C        3.357637000     -1.553881000      4.059477000
H       -2.494987000      4.030897000      3.453230000
H        2.494987000     -4.030897000      3.453230000
H       -4.215287000      1.012775000      3.631880000
H       -3.739647000      2.438337000      4.581385000
H       -2.913973000      0.882876000      4.808253000
H        2.913973000     -0.882875000      4.808253000
H        3.739647000     -2.438337000      4.581385000
H        4.215286000     -1.012774000      3.631880000


